Circuit: * C:\Users\core i5\Documents\LTC\Work\1506\AD603_test.asc

WARNING: Node N007 is floating.

WARNING: Less than two connections to node OUT.  This node is used by R4.
Early termination of direct N-R iteration.
Direct Newton iteration failed to find .op point.  (Use ".option noopiter" to skip.)
Starting Gmin stepping
Gmin = 10
Gmin = 1.07374
vernier = 0.5
vernier = 0.25
vernier = 0.125
vernier = 0.0625
Gmin = 1.10559
vernier = 0.03125
vernier = 0.015625
Gmin = 1.05931
vernier = 0.0078125
vernier = 0.0104167
vernier = 0.00520833
Gmin = 1.04766
vernier = 0.00694444
vernier = 0.00347222
Gmin = 1.03861
vernier = 0.00462963
vernier = 0.00231481
vernier = 0.00308642
Gmin = 1.03312
vernier = 0.00154321
vernier = 0.00205761
Gmin = 1.02954
vernier = 0.00102881
vernier = 0.00137174
Gmin = 1.02698
vernier = 0.00182899
vernier = 0.000914493
Gmin = 1.02464
vernier = 0.00121932
vernier = 0.000609662
vernier = 0.000812882
Gmin = 1.0231
vernier = 0.00108384
vernier = 0.000541921
Gmin = 1.02165
vernier = 0.000722562
vernier = 0.000963415
vernier = 0.000481708
Gmin = 1.02026
vernier = 0.000642277
vernier = 0.000481708
Gmin = 1.01924
vernier = 0.000642277
vernier = 0.000481707
Gmin = 1.01826
vernier = 0.000642276
vernier = 0.000481707
Gmin = 0
Gmin stepping failed

Starting source stepping with srcstepmethod=0
Source Step = 3.0303%
Source Step = 33.3333%
Source Step = 58.3333%
vernier = 0.0625
Source Step = 57.6705%
Source Step = 57.7888%
Source Step = 57.9072%
Source Step = 58.0256%
Source Step = 58.1439%
vernier = 0.00585938
Source Step = 58.3037%
Source Step = 58.4813%
Source Step = 58.6589%
Source Step = 58.8364%
Source Step = 59.014%
vernier = 0.00878906
Source Step = 59.2448%
Source Step = 59.5111%
Source Step = 59.7775%
Source Step = 60.0438%
Source Step = 60.3101%
vernier = 0.0131836
Source Step = 60.6431%
Source Step = 61.0426%
Source Step = 61.4421%
Source Step = 61.8416%
Source Step = 62.2411%
vernier = 0.0197754
Source Step = 62.7205%
Source Step = 63.3197%
Source Step = 63.919%
Source Step = 64.5182%
Source Step = 65.1175%
vernier = 0.0296631
Source Step = 65.8066%
Source Step = 66.7055%
Source Step = 67.6044%
Source Step = 68.5033%
Source Step = 69.4022%
vernier = 0.0444946
Source Step = 70.3909%
Source Step = 71.7392%
Source Step = 73.0876%
Source Step = 74.4359%
Source Step = 75.7842%
vernier = 0.0667419
Source Step = 77.1999%
Source Step = 79.2224%
Source Step = 81.2449%
Source Step = 83.2674%
Source Step = 85.2899%
Source Step = 87.3124%
vernier = 0.100113
Source Step = 90.3461%
Source Step = 93.3798%
Source Step = 96.4135%
Source Step = 99.4473%
Source stepping succeeded in finding the operating point.


tmp: MAX(mag(v(out)))=(51.4264dB,0°) FROM 1e+006 TO 2e+007
bw=457115 FROM 8.76252e+006 TO 9.21963e+006


Date: Thu May 07 14:22:55 2015
Total elapsed time: 2.848 seconds.

tnom = 27
temp = 27
method = trap
totiter = 11769
traniter = 0
tranpoints = 0
accept = 0
rejected = 0
matrix size = 185
fillins = 433
solver = Normal
Matrix Compiler1:    3077 opcodes
Matrix Compiler2: 26.9 KB object code size  5.0/7.7/[3.5]


