Circuit: * C:\Users\core i5\Documents\LTC\Work\1506\ADA4938_test.asc

Direct Newton iteration for .op point succeeded.
Heightened Def Con from 1.51703e-005 ++++to 1.51703e-005
Heightened Def Con from 1.51703e-005 to 1.51703e-005
Heightened Def Con from 2.0169e-005 to 2.0169e-005

Date: Thu May 07 16:47:09 2015
Total elapsed time: 0.082 seconds.

tnom = 27
temp = 27
method = modified trap
totiter = 4679
traniter = 4658
tranpoints = 1444
accept = 1281
rejected = 170
matrix size = 93
fillins = 89
solver = Normal
Thread vector: 9.3/5.7[3] 2.6/1.5[3] 2.2/1.3[3] 0.4/0.9[1]  2592/500
Matrix Compiler1: 6.89 KB object code size  1.9/1.0/[0.7]
Matrix Compiler2: 8.62 KB object code size  0.9/1.1/[0.8]


