Circuit: * C:\Users\core i5\Documents\LTC\LTspiceIV\lib\sym\MyLibrary\ad8421\AD8421.asc

Direct Newton iteration for .op point succeeded.

Date: Thu May 07 17:13:19 2015
Total elapsed time: 0.034 seconds.

tnom = 27
temp = 27
method = trap
totiter = 48
traniter = 0
tranpoints = 0
accept = 0
rejected = 0
matrix size = 25
fillins = 9
solver = Normal
Matrix Compiler1:     107 opcodes
Matrix Compiler2:     180 opcodes

