Circuit: * C:\Users\core i5\Documents\LTC\Work\1506\AD8421_test.asc

WARNING: Less than two connections to node OUT.  This node is used by V:U1:OSO.
Direct Newton iteration failed to find .op point.  (Use ".option noopiter" to skip.)
Starting Gmin stepping
Gmin = 10
Gmin = 1.07374
vernier = 0.5
vernier = 0.25
vernier = 0.125
Gmin = 1.02385
vernier = 0.0625
vernier = 0.03125
vernier = 0.015625
Gmin = 1.01955
vernier = 0.0078125
vernier = 0.00390625
Gmin = 1.0126
vernier = 0.00520833
vernier = 0.00260417
vernier = 0.00130208
Gmin = 1.00866
vernier = 0.00173611
vernier = 0.000868055
Gmin = 1.00636
vernier = 0.00115741
vernier = 0.000578703
vernier = 0.000771604
Gmin = 1.00503
vernier = 0.000578703
vernier = 0.000434027
Gmin = 1.00414
vernier = 0.000578703
vernier = 0.000434027
Gmin = 0
Gmin stepping failed

Starting source stepping with srcstepmethod=0
Source Step = 3.0303%
Source Step = 33.3333%
Source Step = 63.6364%
Source Step = 93.9394%
Source stepping succeeded in finding the operating point.

.step r=10000
.step r=1100
.step r=100
.step r=10

Date: Thu May 07 16:40:19 2015
Total elapsed time: 1.024 seconds.

tnom = 27
temp = 27
method = modified trap
totiter = 7854
traniter = 2082
tranpoints = 1042
accept = 1042
rejected = 0
matrix size = 108
fillins = 38
solver = Normal
Thread vector: 9.5/5.3[3] 2.3/1.3[3] 2.0/1.4[3] 0.3/0.8[1]  2592/500
Matrix Compiler1: 3.99 KB object code size  1.4/0.5/[0.4]
Matrix Compiler2: off  [1.1]/1.4/1.3


